LTspice 24.1.10 for Windows
Circuit: Z:\home\jorge\Documentos\Laboratorios_SRA_Angeloff_Moyano\laboratorio_4\circuitoPasabanda10porciento.net
Start Time: Mon Oct 27 15:28:10 2025
solver = Normal
Maximum thread count: 8
tnom = 27
temp = 27
method = trap
Direct Newton iteration failed to find .op point.  (Use ".option noopiter" to skip.)
Starting Gmin stepping
Gmin = 10
Gmin = 1.07374
Gmin = 0.115292
Gmin = 0.0123794
Gmin = 0.00132923
Gmin = 0.000142725
Gmin = 1.5325e-05
Gmin = 1.6455e-06
Gmin = 1.76685e-07
Gmin = 1.89714e-08
Gmin = 2.03704e-09
Gmin = 2.18725e-10
Gmin = 2.34854e-11
Gmin = 2.52173e-12
Gmin = 2.70769e-13
Gmin = 0
Gmin stepping succeeded in finding the operating point.

.step tol=-0.1
.step tol=0
.step tol=0.1
Total elapsed time: 0.597 seconds.

Files loaded:
Z:\home\jorge\Documentos\Laboratorios_SRA_Angeloff_Moyano\laboratorio_4\circuitoPasabanda10porciento.net
C:\users\jorge\AppData\Local\LTspice\lib\sub\LM324.lib

