LTspice 24.1.10 for Windows
Circuit: Z:\home\jorge\Documentos\Laboratorios_SRA_Angeloff_Moyano\laboratorio_2\circuito_Vos.net
Start Time: Wed Nov 12 17:38:36 2025
solver = Normal
Maximum thread count: 8
tnom = 27
temp = 27
method = trap
Direct Newton iteration failed to find .op point.  (Use ".option noopiter" to skip.)
Starting Gmin stepping
Gmin = 10
Gmin = 1.07374
Gmin = 0.115292
Gmin = 0.0123794
Gmin = 0.00132923
Gmin = 0.000142725
Gmin = 1.5325e-05
vernier = 0.5
vernier = 0.25
vernier = 0.125
Gmin = 1.02473e-05
vernier = 0.0625
vernier = 0.03125
vernier = 0.015625
vernier = 0.0078125
Gmin = 1.04448e-05
vernier = 0.0104167
vernier = 0.0138889
Gmin = 1.01876e-05
vernier = 0.0185185
Gmin = 9.78401e-06
vernier = 0.0246913
vernier = 0.0329218
Gmin = 9.1579e-06
vernier = 0.0438957
vernier = 0.0585276
Gmin = 8.24837e-06
vernier = 0.0780367
Gmin = 6.96418e-06
vernier = 0.104049
vernier = 0.138732
Gmin = 5.28618e-06
vernier = 0.184976
vernier = 0.246634
Gmin = 3.42718e-06
vernier = 0.328846
Gmin = 1.7118e-06
vernier = 0.438461
vernier = 0.584614
Gmin = 5.6283e-07
vernier = 0.779486
vernier = 1
Gmin = 1.02757e-07
Gmin = 1.10335e-08
Gmin = 1.18471e-09
Gmin = 1.27207e-10
Gmin = 1.36588e-11
Gmin = 1.4666e-12
Gmin = 1.57475e-13
Gmin = 0
Gmin stepping succeeded in finding the operating point.

Total elapsed time: 1.477 seconds.

Files loaded:
Z:\home\jorge\Documentos\Laboratorios_SRA_Angeloff_Moyano\laboratorio_2\circuito_Vos.net
C:\users\jorge\AppData\Local\LTspice\lib\sub\LM324.lib

