LTspice 24.1.9 for Windows
Circuit: C:\users\jorge\Documents\Sintesis de Redes Activas\Laboratorios_SRA_Angeloff_Moyano\laboratorio_1\circuito_4\ltspice\Draft1.net
Start Time: Tue Sep  9 09:41:21 2025
solver = Normal
Maximum thread count: 8
tnom = 27
temp = 27
method = trap
Direct Newton iteration for .op point succeeded.
Total elapsed time: 0.032 seconds.

Files loaded:
C:\users\jorge\Documents\Sintesis de Redes Activas\Laboratorios_SRA_Angeloff_Moyano\laboratorio_1\circuito_4\ltspice\Draft1.net

